Version 4
SHEET 1 2792 1220
WIRE 480 -656 448 -656
WIRE 560 -656 544 -656
WIRE 688 -656 672 -656
WIRE 784 -656 752 -656
WIRE 864 -656 848 -656
WIRE 960 -656 928 -656
WIRE 992 -656 976 -656
WIRE 1088 -656 1056 -656
WIRE -224 -560 -224 -592
WIRE -144 -560 -144 -592
WIRE -64 -560 -64 -592
WIRE 16 -560 16 -592
WIRE 96 -560 96 -592
WIRE 448 -560 448 -656
WIRE 448 -560 304 -560
WIRE 464 -560 448 -560
WIRE 560 -560 560 -656
WIRE 560 -560 544 -560
WIRE 672 -560 672 -656
WIRE 672 -560 560 -560
WIRE 688 -560 672 -560
WIRE 784 -560 784 -656
WIRE 784 -560 768 -560
WIRE 848 -560 848 -656
WIRE 848 -560 784 -560
WIRE 864 -560 848 -560
WIRE 960 -560 960 -656
WIRE 960 -560 944 -560
WIRE 976 -560 976 -656
WIRE 976 -560 960 -560
WIRE 992 -560 976 -560
WIRE 1088 -560 1088 -656
WIRE 1088 -560 1072 -560
WIRE -224 -448 -224 -480
WIRE -144 -448 -144 -480
WIRE -144 -448 -224 -448
WIRE -64 -448 -64 -480
WIRE -64 -448 -144 -448
WIRE 16 -448 16 -480
WIRE 16 -448 -64 -448
WIRE 96 -448 96 -480
WIRE 96 -448 16 -448
WIRE 2400 -432 2320 -432
WIRE 2480 -432 2400 -432
WIRE -64 -416 -64 -448
WIRE 2064 -416 2064 -448
WIRE 2480 -416 2480 -432
WIRE 2240 -400 2192 -400
WIRE 1792 -384 1760 -384
WIRE 1936 -384 1872 -384
WIRE 368 -352 336 -352
WIRE 448 -352 432 -352
WIRE 944 -352 944 -384
WIRE 2320 -352 2320 -432
WIRE 2320 -352 2192 -352
WIRE 1632 -336 1616 -336
WIRE 1760 -336 1760 -384
WIRE 1760 -336 1712 -336
WIRE 1936 -336 1760 -336
WIRE 1616 -320 1616 -336
WIRE 2480 -320 2480 -336
WIRE 2656 -320 2480 -320
WIRE 2720 -320 2656 -320
WIRE 848 -304 848 -560
WIRE 880 -304 848 -304
WIRE 2656 -304 2656 -320
WIRE 1088 -288 1088 -560
WIRE 1088 -288 1008 -288
WIRE 1104 -288 1088 -288
WIRE 1216 -288 1184 -288
WIRE 1248 -288 1216 -288
WIRE 1360 -288 1328 -288
WIRE 1504 -288 1360 -288
WIRE 1760 -288 1584 -288
WIRE 1936 -288 1760 -288
WIRE 2480 -288 2480 -320
WIRE -208 -272 -304 -272
WIRE 48 -272 -112 -272
WIRE 176 -272 48 -272
WIRE 336 -272 336 -352
WIRE 336 -272 240 -272
WIRE 352 -272 336 -272
WIRE 448 -272 448 -352
WIRE 448 -272 432 -272
WIRE 592 -272 528 -272
WIRE 640 -272 592 -272
WIRE 752 -272 752 -288
WIRE 752 -272 640 -272
WIRE 880 -272 752 -272
WIRE 2320 -272 2192 -272
WIRE 752 -256 752 -272
WIRE -208 -240 -256 -240
WIRE -64 -240 -112 -240
WIRE 1216 -240 1216 -288
WIRE 1360 -240 1360 -288
WIRE 1760 -240 1760 -288
WIRE 1792 -240 1760 -240
WIRE 1936 -240 1872 -240
WIRE 48 -208 48 -272
WIRE 2320 -192 2320 -272
WIRE 2400 -192 2320 -192
WIRE 2480 -192 2480 -208
WIRE 2480 -192 2400 -192
WIRE 2656 -192 2656 -240
WIRE 592 -176 592 -192
WIRE 640 -176 640 -208
WIRE 640 -176 592 -176
WIRE 944 -176 944 -224
WIRE -256 -160 -256 -240
WIRE -64 -160 -64 -240
WIRE 176 -160 176 -192
WIRE 592 -160 592 -176
WIRE 640 -160 640 -176
WIRE 2064 -160 2064 -192
WIRE 1216 -128 1216 -176
WIRE 1360 -128 1360 -176
WIRE 48 -64 48 -128
WIRE 176 -64 176 -80
WIRE 592 -64 592 -80
WIRE 640 -64 640 -96
FLAG -64 -416 0
FLAG -64 -592 VCC
FLAG 16 -592 VEE
FLAG 96 -592 IN
FLAG 944 -384 VCC
FLAG 944 -176 VEE
FLAG -144 -592 OCM
FLAG -224 -592 OFFS
FLAG 640 -64 0
FLAG -304 -272 IN
FLAG 304 -560 OFFS
FLAG 752 -352 VCC
FLAG 752 -192 VEE
FLAG 592 -64 0
FLAG 176 -64 0
FLAG 48 -64 0
FLAG -64 -160 0
FLAG -256 -160 0
FLAG 1616 -320 0
FLAG 2064 -448 VCC
FLAG 2064 -160 VEE
FLAG 2240 -400 OCM
FLAG 2656 -192 0
FLAG 2720 -320 OCM
FLAG 240 -272 IN
FLAG 1216 -128 0
FLAG 1360 -128 0
FLAG 2400 -432 OUT_P
FLAG 2400 -192 OUT_N
SYMBOL voltage -64 -576 R0
WINDOW 123 0 0 Left 2
WINDOW 39 0 0 Left 2
SYMATTR InstName V1
SYMATTR Value 5
SYMBOL voltage 16 -576 R0
WINDOW 123 0 0 Left 2
WINDOW 39 0 0 Left 2
SYMATTR InstName V2
SYMATTR Value -5
SYMBOL voltage 96 -576 R0
WINDOW 123 24 132 Left 2
WINDOW 39 24 160 Left 2
SYMATTR Value2 AC 1
SYMATTR InstName V3
SYMATTR Value SINE(1 0.5 10k)
SYMBOL voltage -144 -576 R0
WINDOW 123 0 0 Left 2
WINDOW 39 0 0 Left 2
SYMATTR InstName V4
SYMATTR Value 2.05
SYMBOL res 544 -288 R90
WINDOW 0 0 56 VBottom 2
WINDOW 3 32 56 VTop 2
SYMATTR InstName R1
SYMATTR Value 86.6
SYMBOL res 448 -288 R90
WINDOW 0 0 56 VBottom 2
WINDOW 3 32 56 VTop 2
SYMATTR InstName R2
SYMATTR Value 825
SYMBOL res 608 -176 R180
WINDOW 0 36 76 Left 2
WINDOW 3 36 40 Left 2
SYMATTR InstName R7
SYMATTR Value 825
SYMBOL res 608 -64 R180
WINDOW 0 36 76 Left 2
WINDOW 3 36 40 Left 2
SYMATTR InstName R8
SYMATTR Value 86.6
SYMBOL cap 624 -272 R0
WINDOW 0 39 17 Left 2
WINDOW 3 36 48 Left 2
SYMATTR InstName C1
SYMATTR Value 1.5p
SYMBOL res 1088 -576 R90
WINDOW 0 0 56 VBottom 2
WINDOW 3 32 56 VTop 2
SYMATTR InstName R10
SYMATTR Value 825
SYMBOL res 960 -576 R90
WINDOW 0 0 56 VBottom 2
WINDOW 3 32 56 VTop 2
SYMATTR InstName R11
SYMATTR Value 86.6
SYMBOL cap 928 -672 R90
WINDOW 0 0 32 VBottom 2
WINDOW 3 32 32 VTop 2
SYMATTR InstName C2
SYMATTR Value 10p
SYMBOL res 784 -576 R90
WINDOW 0 0 56 VBottom 2
WINDOW 3 32 56 VTop 2
SYMATTR InstName R12
SYMATTR Value 86.6
SYMBOL cap 752 -672 R90
WINDOW 0 0 32 VBottom 2
WINDOW 3 32 32 VTop 2
SYMATTR InstName C3
SYMATTR Value 33p
SYMBOL res 560 -576 R90
WINDOW 0 0 56 VBottom 2
WINDOW 3 32 56 VTop 2
SYMATTR InstName R13
SYMATTR Value 825
SYMBOL res 1600 -304 R90
WINDOW 0 0 56 VBottom 2
WINDOW 3 32 56 VTop 2
SYMATTR InstName R3
SYMATTR Value 187
SYMBOL cap 736 -352 R0
SYMATTR InstName C9
SYMATTR Value 0.2p
SYMBOL cap 736 -256 R0
SYMATTR InstName C10
SYMATTR Value 0.2p
SYMBOL cap 1056 -672 R90
WINDOW 0 0 32 VBottom 2
WINDOW 3 32 32 VTop 2
SYMATTR InstName C12
SYMATTR Value 1.5p
SYMBOL cap 544 -672 R90
WINDOW 0 0 32 VBottom 2
WINDOW 3 32 32 VTop 2
SYMATTR InstName C13
SYMATTR Value 1.5p
SYMBOL cap 432 -368 R90
WINDOW 0 0 32 VBottom 2
WINDOW 3 32 32 VTop 2
SYMATTR InstName C14
SYMATTR Value 1.5p
SYMBOL cap 624 -160 R0
WINDOW 0 41 21 Left 2
WINDOW 3 38 53 Left 2
SYMATTR InstName C15
SYMATTR Value 15p
SYMBOL voltage -224 -576 R0
WINDOW 123 0 0 Left 2
WINDOW 39 0 0 Left 2
SYMATTR InstName V7
SYMATTR Value 1
SYMBOL res 192 -64 R180
WINDOW 0 36 76 Left 2
WINDOW 3 36 40 Left 2
SYMATTR InstName R9
SYMATTR Value 3010
SYMBOL res 192 -176 R180
WINDOW 0 36 76 Left 2
WINDOW 3 36 40 Left 2
SYMATTR InstName R18
SYMATTR Value 5.5
SYMBOL res 64 -112 R180
WINDOW 0 36 76 Left 2
WINDOW 3 36 40 Left 2
SYMATTR InstName R19
SYMATTR Value 52.3
SYMBOL tline -160 -256 R0
SYMATTR InstName T1
SYMBOL res 1728 -352 R90
WINDOW 0 0 56 VBottom 2
WINDOW 3 32 56 VTop 2
SYMATTR InstName R20
SYMATTR Value 255
SYMBOL res 1888 -400 R90
WINDOW 0 0 56 VBottom 2
WINDOW 3 32 56 VTop 2
SYMATTR InstName R21
SYMATTR Value 340
SYMBOL res 1888 -256 R90
WINDOW 0 0 56 VBottom 2
WINDOW 3 32 56 VTop 2
SYMATTR InstName R22
SYMATTR Value 340
SYMBOL res 2464 -432 R0
SYMATTR InstName R23
SYMATTR Value 50
SYMBOL res 2464 -304 R0
SYMATTR InstName R24
SYMATTR Value 50
SYMBOL cap 2640 -304 R0
WINDOW 0 -40 28 Left 2
WINDOW 3 -36 57 Left 2
SYMATTR InstName C6
SYMATTR Value 10p
SYMBOL cap 1200 -240 R0
SYMATTR InstName C4
SYMATTR Value 3.3p
SYMBOL cap 1344 -240 R0
SYMATTR InstName C5
SYMATTR Value 3.3p
SYMBOL ind 1232 -272 R270
WINDOW 0 32 56 VTop 2
WINDOW 3 5 56 VBottom 2
SYMATTR InstName L1
SYMATTR Value 150n
SYMBOL res 1200 -304 R90
WINDOW 0 0 56 VBottom 2
WINDOW 3 32 56 VTop 2
SYMATTR InstName R4
SYMATTR Value 68.1
SYMBOL ADA4817 912 -288 R0
WINDOW 0 -16 -66 Bottom 2
WINDOW 3 106 66 Top 2
SYMATTR InstName U1
SYMBOL ADA4927 1984 -336 R0
SYMATTR InstName U3
TEXT -88 120 Left 2 !;.tran 1u
TEXT -88 80 Left 2 !.ac dec 100 10Meg 2G
TEXT -88 160 Left 2 !;.tran 0.4m
